192
64 water
  O   -6.0082242   -6.2662586   -4.5802338
  H   -6.5424905   -5.6103439   -4.0656431
  H   -5.6336920   -6.8738199   -3.8938766
  O   -5.0373186   -5.2694388   -1.2581917
  H   -4.2054186   -5.5931034   -0.8297803
  H   -4.7347234   -4.8522045   -2.1034720
  O   -4.6274282   -5.9341336    2.2492770
  H   -4.7101573   -5.1458830    2.8426094
  H   -3.9109874   -6.4799239    2.6605690
  O   -4.5897306   -5.1046341    5.8434025
  H   -4.0614669   -4.3241113    6.1470879
  H   -3.9159802   -5.7374895    5.4883729
  O   -4.6345584   -3.2313351   -4.7340392
  H   -5.5110150   -3.0612756   -4.3060848
  H   -3.9716338   -3.0505738   -4.0213309
  O   -5.7843175   -1.6875388   -1.6158981
  H   -5.5789156   -1.0205683   -0.9137814
  H   -4.9345059   -2.1779373   -1.7472116
  O   -4.0532679   -3.0172177    0.8965072
  H   -5.0029000   -2.9092134    1.1548052
  H   -3.5450781   -2.7525507    1.7034720
  O   -5.2392916   -1.9233528    4.2201227
  H   -4.9630386   -1.6225899    5.1221277
  H   -4.6532729   -2.6976426    4.0277698
  O   -4.5421793    0.1063459   -4.8899655
  H   -4.1773773    0.9815575   -4.6053831
  H   -4.9575996   -0.2667241   -4.0723724
  O   -5.1929017    1.7979528   -1.7475681
  H   -5.0761693    2.2031337   -0.8519114
  H   -4.3423389    1.3201441   -1.9155833
  O   -4.0707911    0.3520255    1.1671652
  H   -4.7078166   -0.1786342    1.7081931
  H   -3.1896562   -0.0627653    1.3438701
  O   -4.4519084    1.4620138    4.1679562
  H   -4.2476957    1.0603292    5.0495321
  H   -3.5846010    1.8192442    3.8510175
  O   -3.9570309    3.9958888   -4.1917843
  H   -3.6489354    4.9238787   -4.0359178
  H   -3.4920450    3.4613257   -3.5004096
  O   -5.2830134    5.5588218   -1.3504899
  H   -4.8201861    6.2738417   -1.8554131
  H   -4.6450629    4.8019019   -1.3523286
  O   -4.1961298    3.7699652    1.4800059
  H   -3.8221939    4.6613869    1.2661280
  H   -3.4035244    3.1830035    1.5640556
  O   -5.2934292    4.5674952    4.5895730
  H   -4.8917389    5.2734253    4.0232223
  H   -4.5617633    4.2892880    5.1960259
  O   -2.5756115   -6.0835578   -4.7432081
  H   -2.3736964   -5.1221582   -4.8662974
  H   -3.0328354   -6.1306900   -3.8662988
  O   -1.8928237   -3.8578652   -2.1432360
  H   -2.4348341   -3.5364043   -1.3801122
  H   -1.7762624   -4.8261957   -1.9744344
  O   -1.6220017   -5.9391571    0.7347773
  H   -1.7264934   -4.9711503    0.9141362
  H   -1.1325200   -6.2861686    1.5223197
  O   -1.9880810   -4.0478038    3.7743471
  H   -1.8237540   -3.8153566    4.7224655
  H   -1.9413842   -5.0361756    3.7496424
  O   -1.4630921   -2.2750225   -5.3858987
  H   -2.1324337   -1.5490846   -5.4576731
  H   -1.1344990   -2.2175122   -4.4538012
  O   -2.1602666   -0.6486847   -1.9554322
  H   -2.7525225   -0.7825733   -1.1738693
  H   -2.7156646   -0.9052059   -2.7335744
  O   -0.9269422   -2.1578839    0.7495487
  H   -0.8295164   -1.1731737    0.7240211
  H   -0.8545310   -2.3891285    1.7091044
  O   -2.1459509   -0.8736465    3.9348651
  H   -2.2243677   -1.0426774    4.9072145
  H   -1.1757815   -0.7505921    3.7822940
  O   -1.1756605    1.1464246   -4.5972105
  H   -1.6444449    1.5377036   -3.8180348
  H   -0.5741801    0.4640760   -4.2064282
  O   -1.7899588    2.6726580   -1.1407832
  H   -2.4929247    3.3578893   -1.0155154
  H   -2.0430299    1.9428717   -0.5215753
  O   -1.0399349    1.6310520    2.1948289
  H   -0.8474086    2.0388281    3.0760536
  H   -0.2655370    1.0400109    2.0196769
  O   -1.4990276    2.3833722    6.1705692
  H   -2.4080073    2.7734519    6.2149040
  H   -1.6191184    1.5297210    5.6837570
  O   -0.6481343    4.5904986   -4.4603086
  H   -0.4530144    5.5060387   -4.1376862
  H   -0.8593522    4.0787915   -3.6395249
  O   -1.6814217    6.2896346   -1.2234274
  H   -2.3077422    6.1468369   -0.4699784
  H   -2.0929718    5.8056530   -1.9826354
  O   -0.0808796    4.5994890    1.2011643
  H   -1.0355000    4.3687113    1.0786550
  H    0.4056565    3.7673461    0.9756200
  O   -1.9655799    4.6788072    3.8534043
  H   -2.1847575    5.4672281    3.2960862
  H   -1.7749676    5.0543206    4.7494194
  O    0.6402135   -5.0260642   -4.7926951
  H    0.2074815   -4.5076530   -4.0689357
  H    0.9265255   -5.8676087   -4.3566393
  O    1.0845738   -5.5974539   -1.3341717
  H    0.6869341   -4.8209302   -0.8661125
  H    1.7477865   -5.9596188   -0.6944109
  O    1.2820604   -4.5326884    1.9287881
  H    0.7322786   -4.2647509    2.7069825
  H    1.4637859   -5.4950984    2.0728561
  O    0.3774961   -6.2177490    5.2594556
  H    0.4833307   -5.2334422    5.2460338
  H    0.3058848   -6.4726928    4.3053638
  O    1.6483052   -1.1686965   -5.3791626
  H    1.8151207   -0.8339635   -4.4625276
  H    1.5451705   -2.1473499   -5.2704882
  O    0.7471369   -2.1782047   -2.1496571
  H    1.0619793   -2.0431634   -1.2211550
  H    1.4348832   -2.7589443   -2.5610443
  O    2.0793144   -1.4950259    1.5133508
  H    1.5630134   -1.2898318    2.3326675
  H    2.8695659   -1.9953238    1.8371925
  O    0.6246130   -2.3083763    5.5638506
  H    1.5449014   -2.0605692    5.8319633
  H    0.6715929   -2.4080236    4.5799652
  O    2.0881706    2.0152571   -3.9987733
  H    1.2699200    2.4578891   -3.6608876
  H    2.6907929    1.9788805   -3.2143843
  O    0.7379018    0.8732721   -0.7910214
  H    1.2078509    1.7440419   -0.8154910
  H    0.4817010    0.7040557   -1.7321691
  O    2.9685500    1.4604730    1.5002819
  H    2.1408489    1.9072637    1.8068913
  H    3.3281833    1.0208575    2.3109549
  O    1.1143790    0.8699255    5.0199684
  H    1.8866393    0.6394794    5.5949019
  H    1.3955180    0.6058736    4.1084467
  O    2.5483081    5.3623765   -4.5833728
  H    2.4515358    6.1306231   -3.9662444
  H    3.1197255    4.7205157   -4.0919175
  O    1.2197824    4.5781836   -1.6743245
  H    1.3536611    5.5225220   -1.4089089
  H    2.1044885    4.1546936   -1.5402954
  O    3.0800365    4.9442389    1.2325633
  H    2.7835063    5.7326452    1.7527232
  H    3.3714481    4.2907317    1.9165529
  O    1.1799018    4.1719136    4.3652779
  H    1.1881414    5.0460571    3.9003626
  H    1.3517483    3.5095751    3.6500580
  O    3.8899089   -3.6944623   -4.2619702
  H    3.8172946   -2.8250038   -3.7940326
  H    3.2866787   -4.2976563   -3.7593386
  O    3.8883948   -3.4949879   -0.8964284
  H    3.0717316   -3.5241752   -0.3379159
  H    4.0595763   -4.4406587   -1.1342199
  O    4.8442404   -5.0650179    1.8467872
  H    4.4725379   -4.1561236    1.9729771
  H    4.0984531   -5.5855621    1.4553183
  O    3.3340030   -4.2706615    4.7698621
  H    3.0292364   -3.5925204    4.1161616
  H    3.1062627   -5.1383239    4.3507246
  O    4.9098018   -0.4190865   -5.2930948
  H    4.2903383    0.2264335   -4.8690916
  H    5.4807450   -0.7393750   -4.5502226
  O    3.5317017   -0.4835296   -2.0233182
  H    3.2804424   -0.4576398   -1.0661376
  H    4.5129687   -0.6145794   -2.0189263
  O    5.8111334   -1.0738589    0.6511405
  H    5.0093054   -0.5571369    0.9154577
  H    5.6286741   -1.9934372    0.9692792
  O    4.5823782   -0.8590554    4.1878669
  H    3.5980421   -0.9500711    4.2416964
  H    4.8660530   -1.5883052    3.5811990
  O    6.0232558    2.6002395   -3.8780831
  H    5.0851102    2.8973877   -3.9869521
  H    5.9585861    1.7578057   -3.3618521
  O    4.4478963    2.4859685   -0.9836655
  H    4.6967945    3.2791510   -0.4466254
  H    5.0953813    1.7886219   -0.7103360
  O    6.3417575    2.0897843    2.0224454
  H    5.5754871    2.7153941    2.0626852
  H    6.0585021    1.3152183    2.5702587
  O    4.0410472    2.4366428    4.6599926
  H    3.6503052    2.8961893    5.4450738
  H    5.0039749    2.3538632    4.8746351
  O    5.7773855    5.7279744   -5.3381584
  H    5.3017635    6.5144970   -4.9697968
  H    6.4456590    5.4956146   -4.6454380
  O    4.8204640    6.0880349   -1.9944682
  H    4.0737935    5.9561844   -1.3579572
  H    5.0666200    5.1728267   -2.2809384
  O    6.5390090    5.2720631    0.6860799
  H    5.8126500    5.8732267    0.9883136
  H    7.0293853    5.0397981    1.5142729
  O    4.9443862    5.7283959    4.0561553
  H    4.0221440    5.4533281    4.2891566
  H    5.3571668    4.9138570    3.6734329
